# RBCS package parameters:
 &RBCS_PARM01
 useRBCtemp=.TRUE.,
 tauRelaxT=10800.,
 relaxMaskFile='T_relax_mask.bin'
 relaxTFile='temp_relax.bin',
#---------------------------------------
#- for eddy-permitting run, use files generated by gendata_5km.m:
# relaxMaskFile='T_relax_mask.5km.bin'
# relaxTFile='temperature.5km.bin',
 &

# RBCS for pTracers (read this namelist only when ptracers pkg is 
compiled)
# &RBCS_PARM02
# &
